data_PTFE_II_rect_P1_twochains-vcrelax_2

# QE Optimized crystal structure of PTFE form II. 
# github.com/HiroYokoyama/PTFE_opt-crystal-structures/

_cell_length_a                    5.689968
_cell_length_b                    9.850299
_cell_length_c                    17.088718
_cell_angle_alpha                 89.139249
_cell_angle_beta                  90.000000
_cell_angle_gamma                 90.000000

_symmetry_space_group_name_H-M    'P 1'
_symmetry_Int_Tables_number       1

loop_
_symmetry_equiv_pos_as_xyz        
   'x, y, z'     

loop_
   _atom_site_label
   _atom_site_fract_x
   _atom_site_fract_y
   _atom_site_fract_z
   F  0.212523  0.112351  0.994502
   F  0.212523  0.887649  0.005498
   F  0.743415  0.917474  0.073341
   F  0.829105  0.136566  0.080635
   F  0.280420  1.043306  0.147050
   F  0.101568  0.844271  0.161088
   F  0.710752  0.004699  0.225810
   F  0.974732  0.169528  0.234408
   F  0.282374  0.961367  0.303343
   F  -0.039278  0.835011  0.313229
   F  0.739546  0.075216  0.379787
   F  0.100873  0.158178  0.388180
   F  0.224616  0.891824  0.456468
   F  0.839696  0.861609  0.467957
   F  0.839696  0.138391  0.532043
   F  0.224616  0.108176  0.543532
   F  0.100873  0.841822  0.611820
   F  0.739546  0.924784  0.620213
   F  -0.039278  0.164989  0.686771
   F  0.282374  0.038633  0.696657
   F  0.974732  0.830472  0.765592
   F  0.710752  0.995301  0.774190
   F  0.101568  0.155729  0.838912
   F  0.280420  -0.043306  0.852950
   F  0.829105  0.863434  0.919365
   F  0.743415  0.082526  0.926659
   F  0.712523  0.612351  0.994502
   F  0.712523  0.387649  0.005498
   F  0.243416  0.417474  0.073341
   F  0.329105  0.636566  0.080635
   F  0.780420  0.543306  0.147050
   F  0.601567  0.344271  0.161088
   F  0.210753  0.504699  0.225810
   F  0.474733  0.669528  0.234408
   F  0.782374  0.461367  0.303343
   F  0.460722  0.335011  0.313229
   F  0.239546  0.575216  0.379787
   F  0.600873  0.658177  0.388180
   F  0.724616  0.391824  0.456468
   F  0.339696  0.361609  0.467957
   F  0.339696  0.638391  0.532043
   F  0.724616  0.608176  0.543532
   F  0.600873  0.341823  0.611820
   F  0.239546  0.424784  0.620213
   F  0.460722  0.664989  0.686771
   F  0.782374  0.538633  0.696657
   F  0.474733  0.330472  0.765592
   F  0.210753  0.495301  0.774190
   F  0.601567  0.655729  0.838912
   F  0.780420  0.456694  0.852950
   F  0.329105  0.363434  0.919365
   F  0.243416  0.582526  0.926659
   C  0.073715  0.000000  0.000000
   C  0.921648  0.009487  0.076967
   C  0.068003  0.980678  0.153919
   C  0.944435  0.032642  0.230492
   C  0.043601  0.964540  0.307871
   C  0.971660  0.042216  0.384378
   C  0.013452  0.956045  0.461778
   C  0.013452  0.043955  0.538222
   C  0.971660  0.957784  0.615622
   C  0.043601  0.035460  0.692129
   C  0.944435  0.967358  0.769508
   C  0.068003  0.019322  0.846081
   C  0.921648  0.990513  0.923033
   C  0.573715  0.500000  0.000000
   C  0.421648  0.509487  0.076967
   C  0.568003  0.480678  0.153919
   C  0.444435  0.532641  0.230492
   C  0.543601  0.464540  0.307871
   C  0.471660  0.542216  0.384378
   C  0.513452  0.456045  0.461778
   C  0.513452  0.543955  0.538222
   C  0.471660  0.457784  0.615622
   C  0.543601  0.535460  0.692129
   C  0.444435  0.467359  0.769508
   C  0.568003  0.519322  0.846081
   C  0.421648  0.490513  0.923033

