data_PTFE_IV_rect_P1_twochains-vcrelax_hex

# QE Optimized crystal structure of PTFE form IV. Hexagonal converted.
# github.com/HiroYokoyama/PTFE_opt-crystal-structures/                

_cell_length_a                    5.675521
_cell_length_b                    5.675521
_cell_length_c                    19.751033
_cell_angle_alpha                 89.985160
_cell_angle_beta                  90.014840
_cell_angle_gamma                 119.979545

_symmetry_space_group_name_H-M    'P 1'
_symmetry_Int_Tables_number       1

loop_
_symmetry_equiv_pos_as_xyz        
   'x, y, z'     

loop_
   _atom_site_label
   _atom_site_fract_x
   _atom_site_fract_y
   _atom_site_fract_z
   F  0.897907  -0.327369  0.996665
   F  0.672631  -0.102093  0.003335
   F  1.160724  0.337918  0.063216
   F  1.310650  0.045174  0.070550
   F  0.779764  -0.330622  0.128824
   F  1.725488  0.029070  0.137777
   F  1.275080  0.303442  0.195509
   F  0.220205  -0.110661  0.204617
   F  0.688370  -0.263918  0.262690
   F  0.840822  -0.820924  0.270046
   F  1.326983  0.224065  0.330035
   F  1.100722  0.773558  0.336538
   F  0.662011  -0.178835  0.396751
   F  0.953324  -0.735870  0.403815
   F  1.331433  0.111543  0.462098
   F  0.972934  -0.302752  0.471313
   F  0.697248  -0.027066  0.528687
   F  1.111543  0.331433  0.537902
   F  0.264130  -0.046676  0.596185
   F  0.821165  -0.337989  0.603249
   F  1.773558  0.100722  0.663462
   F  1.224065  0.326983  0.669965
   F  0.179076  -0.159178  0.729954
   F  0.736082  -0.311630  0.737310
   F  0.889339  -0.779795  0.795383
   F  1.303442  0.275080  0.804491
   F  1.029070  0.725488  0.862223
   F  0.669378  -0.220236  0.871176
   F  1.045174  0.310650  0.929450
   F  1.337918  0.160724  0.936784
   C  0.924402  -0.075598  0.000000
   C  1.084373  0.069339  0.066758
   C  0.911779  -0.054313  0.133330
   C  1.088525  0.033983  0.200010
   C  0.915601  -0.014355  0.266538
   C  0.074881  -0.000736  0.333314
   C  1.930301  0.014139  0.400118
   C  0.055243  -0.033395  0.466692
   C  0.966605  -0.944757  0.533308
   C  1.014139  0.930301  0.599882
   C  0.999264  -0.925119  0.666686
   C  0.985645  -0.084399  0.733462
   C  1.033983  0.088525  0.799990
   C  0.945687  -0.088221  0.866670
   C  1.069339  0.084373  0.933242

