data_PTFE_II_rect_P1_twochains-vcrelax_2_hex

# QE Optimized crystal structure of PTFE form II. 
# github.com/HiroYokoyama/PTFE_opt-crystal-structures/

_cell_length_a                    5.687797
_cell_length_b                    5.687797
_cell_length_c                    17.088718
_cell_angle_alpha                 89.254670
_cell_angle_beta                  90.745330
_cell_angle_gamma                 119.974742

_symmetry_space_group_name_H-M    'P 1'
_symmetry_Int_Tables_number       1

loop_
_symmetry_equiv_pos_as_xyz        
   'x, y, z'     

loop_
   _atom_site_label
   _atom_site_fract_x
   _atom_site_fract_y
   _atom_site_fract_z
   F  1.100172  0.324874  0.994502
   F  1.324874  0.100172  0.005498
   F  0.825942  -0.339111  0.073341
   F  0.692539  -0.034329  0.080635
   F  1.237114  0.323726  0.147050
   F  0.257296  -0.054162  0.161088
   F  0.706053  -0.284549  0.225810
   F  1.805205  0.144261  0.234408
   F  1.321007  0.243741  0.303343
   F  1.125711  0.795733  0.313229
   F  0.664330  -0.185238  0.379787
   F  0.942696  -0.740949  0.388180
   F  1.332792  0.116440  0.456468
   F  0.978087  -0.298695  0.467957
   F  0.701305  -0.021913  0.532043
   F  1.116440  0.332792  0.543532
   F  0.259051  -0.057304  0.611820
   F  0.814762  -0.335670  0.620213
   F  1.795733  0.125711  0.686771
   F  1.243741  0.321007  0.696657
   F  1.144261  0.805205  0.765592
   F  0.715451  -0.293947  0.774190
   F  0.945838  -0.742704  0.838912
   F  1.323726  0.237114  0.852950
   F  0.965671  -0.307461  0.919365
   F  0.660890  -0.174059  0.926659
   C  1.073715  0.073715  0.000000
   C  0.912161  -0.068865  0.076967
   C  1.087325  0.048681  0.153919
   C  0.911794  -0.022923  0.230492
   C  1.079061  0.008141  0.307871
   C  1.929444  0.013876  0.384378
   C  0.057407  -0.030503  0.461778
   C  0.969497  -0.942593  0.538222
   C  1.013876  0.929444  0.615622
   C  1.008141  0.079061  0.692129
   C  0.977077  -0.088206  0.769508
   C  1.048681  0.087325  0.846081
   C  0.931135  -0.087839  0.923033

