data                    

# QE Optimized crystal structure of PTFE form IV. 
# github.com/HiroYokoyama/PTFE_opt-crystal-structures/

_cell_length_a                    5.677276
_cell_length_b                    9.829278
_cell_length_c                    19.751033
_cell_angle_alpha                 90.017138
_cell_angle_beta                  90.000000
_cell_angle_gamma                 90.000000

_symmetry_space_group_name_H-M    'P 1'
_symmetry_Int_Tables_number       1

loop_
_symmetry_equiv_pos_as_xyz        
   'x, y, z'     

loop_
   _atom_site_label
   _atom_site_fract_x
   _atom_site_fract_y
   _atom_site_fract_z
   F  0.214731  0.112638  0.996665
   F  0.214731  0.887362  0.003335
   F  0.750679  0.911403  0.063216
   F  0.822088  0.132738  0.070550
   F  0.275429  0.055193  0.128824
   F  0.122721  0.848209  0.137777
   F  0.710739  -0.014181  0.195509
   F  0.945228  0.165433  0.204617
   F  0.287774  0.976144  0.262690
   F  -0.009949  0.830873  0.270046
   F  0.724476  0.051459  0.330035
   F  1.062860  0.163582  0.336538
   F  0.258412  0.920423  0.396751
   F  0.891273  0.844597  0.403815
   F  0.778512  0.109945  0.462098
   F  0.164909  0.137843  0.471313
   F  0.164909  0.862157  0.528687
   F  0.778512  0.890055  0.537902
   F  0.891273  0.155403  0.596185
   F  0.258412  0.079577  0.603249
   F  1.062860  0.836418  0.663462
   F  0.724476  0.948541  0.669965
   F  -0.009949  0.169127  0.729954
   F  0.287774  0.023856  0.737310
   F  0.945228  0.834567  0.795383
   F  0.710739  1.014181  0.804491
   F  0.122721  0.151791  0.862223
   F  0.275429  0.944807  0.871176
   F  0.822088  0.867262  0.929450
   F  0.750679  0.088597  0.936784
   F  0.714731  0.612638  0.996665
   F  0.714731  0.387362  0.003335
   F  0.250679  0.411403  0.063216
   F  0.322088  0.632738  0.070550
   F  0.775430  0.555193  0.128824
   F  0.622722  0.348209  0.137777
   F  0.210739  0.485819  0.195509
   F  0.445228  0.665433  0.204617
   F  0.787774  0.476144  0.262690
   F  0.490051  0.330873  0.270046
   F  0.224476  0.551459  0.330035
   F  0.562860  0.663582  0.336538
   F  0.758412  0.420423  0.396751
   F  0.391273  0.344597  0.403815
   F  0.278512  0.609945  0.462098
   F  0.664909  0.637843  0.471313
   F  0.664909  0.362157  0.528687
   F  0.278512  0.390055  0.537902
   F  0.391273  0.655403  0.596185
   F  0.758412  0.579577  0.603249
   F  0.562860  0.336418  0.663462
   F  0.224476  0.448541  0.669965
   F  0.490051  0.669127  0.729954
   F  0.787774  0.523856  0.737310
   F  0.445228  0.334567  0.795383
   F  0.210739  0.514181  0.804491
   F  0.622722  0.651791  0.862223
   F  0.775430  0.444807  0.871176
   F  0.322088  0.367262  0.929450
   F  0.250679  0.588597  0.936784
   C  0.075598  0.000000  0.000000
   C  0.923144  0.007517  0.066758
   C  0.071268  0.983046  0.133330
   C  0.938746  0.027271  0.200010
   C  0.049377  0.964978  0.266538
   C  0.962928  0.037809  0.333314
   C  0.027780  0.958081  0.400118
   C  0.989076  0.044319  0.466692
   C  0.989076  0.955681  0.533308
   C  0.027780  0.041919  0.599882
   C  0.962928  0.962191  0.666686
   C  0.049377  0.035022  0.733462
   C  0.938746  0.972729  0.799990
   C  0.071268  0.016954  0.866670
   C  0.923144  0.992483  0.933242
   C  0.575598  0.500000  0.000000
   C  0.423144  0.507517  0.066758
   C  0.571267  0.483046  0.133330
   C  0.438746  0.527271  0.200010
   C  0.549377  0.464978  0.266538
   C  0.462928  0.537808  0.333314
   C  0.527780  0.458081  0.400118
   C  0.489076  0.544319  0.466692
   C  0.489076  0.455681  0.533308
   C  0.527780  0.541919  0.599882
   C  0.462928  0.462192  0.666686
   C  0.549377  0.535022  0.733462
   C  0.438746  0.472729  0.799990
   C  0.571267  0.516954  0.866670
   C  0.423144  0.492483  0.933242



